  Page 1                                    Thu Sep 16 11:20:34 2010

  ******************************************************************
  *                           E P A N E T                          *
  *                   Hydraulic and Water Quality                  *
  *                   Analysis for Pipe Networks                   *
  *                         Version 2.00.12                        *
  ******************************************************************
  
  Analysis begun Thu Sep 16 11:20:34 2010

  Analysis ended Thu Sep 16 11:20:34 2010
