  Page 1                                    Thu Sep 16 11:20:34 2010

  ******************************************************************
  *                           E P A N E T                          *
  *                   Hydraulic and Water Quality                  *
  *                   Analysis for Pipe Networks                   *
  *                         Version 2.00.12                        *
  ******************************************************************
  
   
      Input Data File ................... D:\development\hydrologis-hg\hydrologis\epanet\eu.hydrologis.jgrass.epanet\example\semplice.inp
      Number of Junctions................ 69
      Number of Reservoirs............... 1
      Number of Tanks ................... 12
      Number of Pipes ................... 68
      Number of Pumps ................... 1
      Number of Valves .................. 12
      Headloss Formula .................. Darcy-Weisbach
      Hydraulic Timestep ................ 0.50 hrs
      Hydraulic Accuracy ................ 0.001000
      Status Check Frequency ............ 2
      Maximum Trials Checked ............ 10
      Damping Limit Threshold ........... 0.000000
      Maximum Trials .................... 40
      Quality Analysis .................. None
      Specific Gravity .................. 1.00
      Relative Kinematic Viscosity ...... 1.00
      Relative Chemical Diffusivity ..... 1.00
      Demand Multiplier ................. 1.00
      Total Duration .................... 24.00 hrs
      Reporting Criteria:
         All Nodes
         with Pressure above 20.00 m
         No Links
   
   
  DIFFERENTIAL Node Results:
  --------------------------------------------------------
                     Demand      Head  Pressure  Chemical
  Node                  L/s         m         m      mg/L
  --------------------------------------------------------
  BF01                 0.29     22.59      22.6      0.00
  BF05                 0.29     48.27      48.3      0.00
  BF19                 0.29     25.14      25.1      0.00
  BF20                 0.29     20.64      20.6      0.00
  BF29                 0.29     35.79      35.8      0.00
  BF28                 0.29     27.78      27.8      0.00
  BF26                 0.29     21.22      21.2      0.00
  PZ02A                0.00     48.27      48.3      0.00
  PZ01A                0.00     25.14      25.1      0.00
  PZ07A                0.00     20.48      20.5      0.00
   